<?xml version="1.0" encoding="ISO-8859-1"?>
<febio_spec version="4.0">
	<Module type="solid"/>
	<Code>
		<callback name="precice_callback"/>
	</Code>
	<Control>
		<analysis>DYNAMIC</analysis>
		<time_steps>50</time_steps>
		<step_size>1</step_size>
		<plot_zero_state>0</plot_zero_state>
		<plot_range>0,-1</plot_range>
		<plot_level>PLOT_MAJOR_ITRS</plot_level>
		<output_level>OUTPUT_MAJOR_ITRS</output_level>
		<plot_stride>1</plot_stride>
		<adaptor_re_solve>1</adaptor_re_solve>
		<solver type="solid">
			<symmetric_stiffness>symmetric</symmetric_stiffness>
			<equation_scheme>staggered</equation_scheme>
			<equation_order>default</equation_order>
			<optimize_bw>0</optimize_bw>
			<lstol>0.9</lstol>
			<lsmin>0.01</lsmin>
			<lsiter>5</lsiter>
			<max_refs>15</max_refs>
			<check_zero_diagonal>0</check_zero_diagonal>
			<zero_diagonal_tol>0</zero_diagonal_tol>
			<force_partition>0</force_partition>
			<reform_each_time_step>1</reform_each_time_step>
			<reform_augment>0</reform_augment>
			<diverge_reform>1</diverge_reform>
			<min_residual>1e-20</min_residual>
			<max_residual>0</max_residual>
			<dtol>0.001</dtol>
			<etol>0.01</etol>
			<rtol>0</rtol>
			<rhoi>-2</rhoi>
			<alpha>1</alpha>
			<beta>0.25</beta>
			<gamma>0.5</gamma>
			<logSolve>0</logSolve>
			<arc_length>0</arc_length>
			<arc_length_scale>0</arc_length_scale>
			<qn_method type="BFGS">
				<max_ups>10</max_ups>
				<max_buffer_size>0</max_buffer_size>
				<cycle_buffer>1</cycle_buffer>
				<cmax>100000</cmax>
			</qn_method>
		</solver>
	</Control>
	<Globals>
		<Constants>
			<T>0</T>
			<P>0</P>
			<R>8.31446</R>
			<Fc>96485.3</Fc>
		</Constants>
	</Globals>
	<Material>
		<material id="1" name="Material2" type="CustomMaterial">
			<density>10</density>
			<k>1000</k>
			<pressure_model>default</pressure_model>
			<c1>3.176e-10</c1>
			<c2>1.813</c2>
			<c3>1</c3>
			<c4>1</c4>
			<c5>107.5</c5>
			<lam_max>1</lam_max>
			<fiber type="vector">
				<vector>0,0,1</vector>
			</fiber>
			<active_contraction type="CustomContraction">
				<ascl>0</ascl>
				<Tmax>1</Tmax>
				<ca0>1</ca0>
				<camax>0</camax>
				<beta>8.900363e-308</beta>
				<l0>0</l0>
				<refl>0</refl>
			</active_contraction>
		</material>
	</Material>
	<Mesh>
		<Nodes name="Object1">
			<node id="1">0,0,0</node>
			<node id="2">3,0,0</node>
			<node id="3">3,3,0</node>
			<node id="4">0,3,0</node>
			<node id="5">0,0,9</node>
			<node id="6">3,0,9</node>
			<node id="7">3,3,9</node>
			<node id="8">0,3,9</node>
			<node id="9">1,0,0</node>
			<node id="10">2,0,0</node>
			<node id="11">3,0,1</node>
			<node id="12">3,0,2</node>
			<node id="13">3,0,3</node>
			<node id="14">3,0,4</node>
			<node id="15">3,0,5</node>
			<node id="16">3,0,6</node>
			<node id="17">3,0,7</node>
			<node id="18">3,0,8</node>
			<node id="19">2,0,9</node>
			<node id="20">1,0,9</node>
<!-- ... 140 like lines cut -->
		</Nodes>
		<Elements type="hex8" name="Part1">
			<elem id="1">1,9,123,54,28,57,129,106</elem>
			<elem id="2">9,10,124,123,57,58,130,129</elem>
			<elem id="3">10,2,29,124,58,11,73,130</elem>
			<elem id="4">54,123,121,53,106,129,131,105</elem>
			<elem id="5">123,124,122,121,129,130,132,131</elem>
			<elem id="6">124,29,30,122,130,73,74,132</elem>
			<elem id="7">53,121,42,4,105,131,90,43</elem>
			<elem id="8">121,122,41,42,131,132,89,90</elem>
			<elem id="9">122,30,3,41,132,74,31,89</elem>
			<elem id="10">28,57,129,106,27,59,133,108</elem>
			<elem id="11">57,58,130,129,59,60,134,133</elem>
			<elem id="12">58,11,73,130,60,12,75,134</elem>
			<elem id="13">106,129,131,105,108,133,135,107</elem>
			<elem id="14">129,130,132,131,133,134,136,135</elem>
			<elem id="15">130,73,74,132,134,75,76,136</elem>
			<elem id="16">105,131,90,43,107,135,92,44</elem>
			<elem id="17">131,132,89,90,135,136,91,92</elem>
			<elem id="18">132,74,31,89,136,76,32,91</elem>
			<elem id="19">27,59,133,108,26,61,137,110</elem>
			<elem id="20">59,60,134,133,61,62,138,137</elem>
<!-- ... 61 like lines cut -->
		</Elements>
		<Surface name="ZeroDisplacement1">
			<quad4 id="1">4,42,121,53</quad4>
			<quad4 id="2">42,41,122,121</quad4>
			<quad4 id="3">41,3,30,122</quad4>
			<quad4 id="4">53,121,123,54</quad4>
			<quad4 id="5">121,122,124,123</quad4>
			<quad4 id="6">122,30,29,124</quad4>
			<quad4 id="7">54,123,9,1</quad4>
			<quad4 id="8">123,124,10,9</quad4>
			<quad4 id="9">124,29,2,10</quad4>
		</Surface>
	</Mesh>
	<MeshDomains>
		<SolidDomain name="Part1" mat="Material2"/>
	</MeshDomains>
	<Boundary>
		<bc name="ZeroDisplacement1" node_set="@surface:ZeroDisplacement1" type="zero displacement">
			<x_dof>1</x_dof>
			<y_dof>1</y_dof>
			<z_dof>1</z_dof>
		</bc>
	</Boundary>
	<Output>
		<plotfile type="febio">
			<var type="displacement"/>
			<var type="stress"/>
			<var type="relative volume"/>
		</plotfile>
	</Output>
</febio_spec>
