<?xml version="1.0" encoding="ISO-8859-1"?>
<febio_spec version="4.0">
	<Module type="solid"/>
	<Code>
		<callback name="precice_callback"/>
	</Code>
	<Control>
		<analysis>STATIC</analysis>
		<time_steps>500</time_steps>
		<step_size>0.1</step_size>
		<plot_zero_state>0</plot_zero_state>
		<plot_range>0,-1</plot_range>
		<plot_level>PLOT_MAJOR_ITRS</plot_level>
		<output_level>OUTPUT_MAJOR_ITRS</output_level>
		<plot_stride>1</plot_stride>
		<adaptor_re_solve>1</adaptor_re_solve>
		<time_stepper type="default">
			<max_retries>5</max_retries>
			<opt_iter>11</opt_iter>
			<dtmin>0</dtmin>
			<dtmax>0.1</dtmax>
			<aggressiveness>0</aggressiveness>
			<cutback>0.5</cutback>
			<dtforce>0</dtforce>
		</time_stepper>
		<solver type="solid">
			<symmetric_stiffness>symmetric</symmetric_stiffness>
			<equation_scheme>staggered</equation_scheme>
			<equation_order>default</equation_order>
			<optimize_bw>0</optimize_bw>
			<lstol>0.9</lstol>
			<lsmin>0.01</lsmin>
			<lsiter>5</lsiter>
			<max_refs>15</max_refs>
			<check_zero_diagonal>0</check_zero_diagonal>
			<zero_diagonal_tol>0</zero_diagonal_tol>
			<force_partition>0</force_partition>
			<reform_each_time_step>1</reform_each_time_step>
			<reform_augment>0</reform_augment>
			<diverge_reform>1</diverge_reform>
			<min_residual>1e-20</min_residual>
			<max_residual>0</max_residual>
			<dtol>0.001</dtol>
			<etol>0.01</etol>
			<rtol>0</rtol>
			<rhoi>-2</rhoi>
			<alpha>1</alpha>
			<beta>0.25</beta>
			<gamma>0.5</gamma>
			<logSolve>0</logSolve>
			<arc_length>0</arc_length>
			<arc_length_scale>0</arc_length_scale>
			<qn_method type="BFGS">
				<max_ups>10</max_ups>
				<max_buffer_size>0</max_buffer_size>
				<cycle_buffer>1</cycle_buffer>
				<cmax>100000</cmax>
			</qn_method>
		</solver>
	</Control>
	<Globals>
		<Constants>
			<T>0</T>
			<P>0</P>
			<R>8.31446</R>
			<Fc>96485.3</Fc>
		</Constants>
	</Globals>
	<Material>
		<material id="1" name="Material5" type="rigid body">
			<density>1</density>
			<E>1</E>
			<v>0</v>
		</material>
	</Material>
	<Mesh>
		<Nodes name="Object1">
			<node id="1">0,0,0</node>
			<node id="2">3,0,0</node>
			<node id="3">3,3,0</node>
			<node id="4">0,3,0</node>
			<node id="5">0,0,9</node>
			<node id="6">3,0,9</node>
			<node id="7">3,3,9</node>
			<node id="8">0,3,9</node>
			<node id="9">0.75,0,0</node>
			<node id="10">1.5,0,0</node>
			<node id="11">2.25,0,0</node>
			<node id="12">3,0,0.75</node>
			<node id="13">3,0,1.5</node>
			<node id="14">3,0,2.25</node>
			<node id="15">3,0,3</node>
			<node id="16">3,0,3.75</node>
			<node id="17">3,0,4.5</node>
			<node id="18">3,0,5.25</node>
			<node id="19">3,0,6</node>
			<node id="20">3,0,6.75</node>
<!-- ... 305 like lines cut -->
		</Nodes>
		<Elements type="hex8" name="Part1">
			<elem id="1">1,9,215,73,36,77,227,178</elem>
			<elem id="2">9,10,216,215,77,78,228,227</elem>
			<elem id="3">10,11,217,216,78,79,229,228</elem>
			<elem id="4">11,2,37,217,79,12,110,229</elem>
			<elem id="5">73,215,212,72,178,227,230,177</elem>
			<elem id="6">215,216,213,212,227,228,231,230</elem>
			<elem id="7">216,217,214,213,228,229,232,231</elem>
			<elem id="8">217,37,38,214,229,110,111,232</elem>
			<elem id="9">72,212,209,71,177,230,233,176</elem>
			<elem id="10">212,213,210,209,230,231,234,233</elem>
			<elem id="11">213,214,211,210,231,232,235,234</elem>
			<elem id="12">214,38,39,211,232,111,112,235</elem>
			<elem id="13">71,209,56,4,176,233,145,57</elem>
			<elem id="14">209,210,55,56,233,234,144,145</elem>
			<elem id="15">210,211,54,55,234,235,143,144</elem>
			<elem id="16">211,39,3,54,235,112,40,143</elem>
			<elem id="17">36,77,227,178,35,80,236,181</elem>
			<elem id="18">77,78,228,227,80,81,237,236</elem>
			<elem id="19">78,79,229,228,81,82,238,237</elem>
			<elem id="20">79,12,110,229,82,13,113,238</elem>
<!-- ... 172 like lines cut -->
		</Elements>
	</Mesh>
	<MeshDomains>
		<SolidDomain name="Part1" mat="Material5"/>
	</MeshDomains>
	<Output>
		<plotfile type="febio">
			<var type="displacement"/>
			<var type="stress"/>
			<var type="relative volume"/>
		</plotfile>
	</Output>
</febio_spec>
