<?xml version="1.0" encoding="ISO-8859-1"?>
<febio_spec version="4.0">
	<Module type="solid"/>
	<Control>
		<analysis>DYNAMIC</analysis>
		<time_steps>10</time_steps>
		<step_size>0.1</step_size>
		<plot_zero_state>0</plot_zero_state>
		<plot_range>0,-1</plot_range>
		<plot_level>PLOT_MAJOR_ITRS</plot_level>
		<output_level>OUTPUT_MAJOR_ITRS</output_level>
		<plot_stride>1</plot_stride>
		<adaptor_re_solve>1</adaptor_re_solve>
		<solver type="solid">
			<symmetric_stiffness>symmetric</symmetric_stiffness>
			<equation_scheme>staggered</equation_scheme>
			<equation_order>default</equation_order>
			<optimize_bw>0</optimize_bw>
			<lstol>0.9</lstol>
			<lsmin>0.01</lsmin>
			<lsiter>5</lsiter>
			<max_refs>15</max_refs>
			<check_zero_diagonal>0</check_zero_diagonal>
			<zero_diagonal_tol>0</zero_diagonal_tol>
			<force_partition>0</force_partition>
			<reform_each_time_step>1</reform_each_time_step>
			<reform_augment>0</reform_augment>
			<diverge_reform>1</diverge_reform>
			<min_residual>1e-20</min_residual>
			<max_residual>0</max_residual>
			<dtol>0.001</dtol>
			<etol>0.01</etol>
			<rtol>0</rtol>
			<rhoi>-2</rhoi>
			<alpha>1</alpha>
			<beta>0.25</beta>
			<gamma>0.5</gamma>
			<logSolve>0</logSolve>
			<arc_length>0</arc_length>
			<arc_length_scale>0</arc_length_scale>
			<qn_method type="BFGS">
				<max_ups>10</max_ups>
				<max_buffer_size>0</max_buffer_size>
				<cycle_buffer>1</cycle_buffer>
				<cmax>100000</cmax>
			</qn_method>
		</solver>
	</Control>
	<Globals>
		<Constants>
			<T>0</T>
			<R>0</R>
			<Fc>0</Fc>
		</Constants>
	</Globals>
	<Material>
		<material id="1" name="Material1" type="Mooney-Rivlin">
			<density>1000000</density>
			<k>7000000</k>
			<pressure_model>default</pressure_model>
			<c1>3000</c1>
			<c2>7000</c2>
		</material>
	</Material>
	<Mesh>
		<Nodes name="Object1">
			<node id="1">-0.06,-0.02,0</node>
			<node id="2">0.06,-0.02,0</node>
			<node id="3">0.06,0.02,0</node>
			<node id="4">-0.06,0.02,0</node>
			<node id="5">-0.06,-0.02,0.04</node>
			<node id="6">0.06,-0.02,0.04</node>
			<node id="7">0.06,0.02,0.04</node>
			<node id="8">-0.06,0.02,0.04</node>
			<node id="9">-0.055,-0.02,0</node>
			<node id="10">-0.05,-0.02,0</node>
			<node id="11">-0.045,-0.02,0</node>
			<node id="12">-0.04,-0.02,0</node>
			<node id="13">-0.035,-0.02,0</node>
			<node id="14">-0.03,-0.02,0</node>
			<node id="15">-0.025,-0.02,0</node>
			<node id="16">-0.02,-0.02,0</node>
			<node id="17">-0.015,-0.02,0</node>
			<node id="18">-0.01,-0.02,0</node>
			<node id="19">-0.005,-0.02,0</node>
			<node id="20">0,-0.02,0</node>
<!-- ... 2005 like lines cut -->
		</Nodes>
		<Elements type="hex8" name="Part1">
			<elem id="1">1,9,715,149,68,157,899,534</elem>
			<elem id="2">9,10,716,715,157,158,900,899</elem>
			<elem id="3">10,11,717,716,158,159,901,900</elem>
			<elem id="4">11,12,718,717,159,160,902,901</elem>
			<elem id="5">12,13,719,718,160,161,903,902</elem>
			<elem id="6">13,14,720,719,161,162,904,903</elem>
			<elem id="7">14,15,721,720,162,163,905,904</elem>
			<elem id="8">15,16,722,721,163,164,906,905</elem>
			<elem id="9">16,17,723,722,164,165,907,906</elem>
			<elem id="10">17,18,724,723,165,166,908,907</elem>
			<elem id="11">18,19,725,724,166,167,909,908</elem>
			<elem id="12">19,20,726,725,167,168,910,909</elem>
			<elem id="13">20,21,727,726,168,169,911,910</elem>
			<elem id="14">21,22,728,727,169,170,912,911</elem>
			<elem id="15">22,23,729,728,170,171,913,912</elem>
			<elem id="16">23,24,730,729,171,172,914,913</elem>
			<elem id="17">24,25,731,730,172,173,915,914</elem>
			<elem id="18">25,26,732,731,173,174,916,915</elem>
			<elem id="19">26,27,733,732,174,175,917,916</elem>
			<elem id="20">27,28,734,733,175,176,918,917</elem>
<!-- ... 1516 like lines cut -->
		</Elements>
		<Surface name="Dirichlet">
			<quad4 id="1">4,143,528,113</quad4>
			<quad4 id="2">143,144,529,528</quad4>
			<quad4 id="3">144,145,530,529</quad4>
			<quad4 id="4">145,146,531,530</quad4>
			<quad4 id="5">146,147,532,531</quad4>
			<quad4 id="6">147,148,533,532</quad4>
			<quad4 id="7">148,149,534,533</quad4>
			<quad4 id="8">149,1,68,534</quad4>
			<quad4 id="9">113,528,535,114</quad4>
			<quad4 id="10">528,529,536,535</quad4>
			<quad4 id="11">529,530,537,536</quad4>
			<quad4 id="12">530,531,538,537</quad4>
			<quad4 id="13">531,532,539,538</quad4>
			<quad4 id="14">532,533,540,539</quad4>
			<quad4 id="15">533,534,541,540</quad4>
			<quad4 id="16">534,68,67,541</quad4>
			<quad4 id="17">114,535,542,115</quad4>
			<quad4 id="18">535,536,543,542</quad4>
			<quad4 id="19">536,537,544,543</quad4>
			<quad4 id="20">537,538,545,544</quad4>
<!-- ... 44 like lines cut -->
		</Surface>
		<Surface name="Neuman">
			<quad4 id="1">2,69,318,32</quad4>
			<quad4 id="2">69,70,319,318</quad4>
			<quad4 id="3">70,71,320,319</quad4>
			<quad4 id="4">71,72,321,320</quad4>
			<quad4 id="5">72,73,322,321</quad4>
			<quad4 id="6">73,74,323,322</quad4>
			<quad4 id="7">74,75,324,323</quad4>
			<quad4 id="8">75,3,76,324</quad4>
			<quad4 id="9">32,318,325,33</quad4>
			<quad4 id="10">318,319,326,325</quad4>
			<quad4 id="11">319,320,327,326</quad4>
			<quad4 id="12">320,321,328,327</quad4>
			<quad4 id="13">321,322,329,328</quad4>
			<quad4 id="14">322,323,330,329</quad4>
			<quad4 id="15">323,324,331,330</quad4>
			<quad4 id="16">324,76,77,331</quad4>
			<quad4 id="17">33,325,332,34</quad4>
			<quad4 id="18">325,326,333,332</quad4>
			<quad4 id="19">326,327,334,333</quad4>
			<quad4 id="20">327,328,335,334</quad4>
<!-- ... 44 like lines cut -->
		</Surface>
	</Mesh>
	<MeshDomains>
		<SolidDomain name="Part1" mat="Material1"/>
	</MeshDomains>
	<Boundary>
		<bc name="Dirichlet" node_set="@surface:Dirichlet" type="zero displacement">
			<x_dof>1</x_dof>
			<y_dof>1</y_dof>
			<z_dof>1</z_dof>
		</bc>
	</Boundary>
	<Loads>
		<surface_load name="Neuman" surface="Neuman" type="force">
			<scale>1</scale>
			<force>5,0,0</force>
			<shell_bottom>0</shell_bottom>
		</surface_load>
	</Loads>
	<Output>
		<plotfile type="febio">
			<var type="displacement"/>
			<var type="stress"/>
		</plotfile>
	</Output>
</febio_spec>
